examples/Modified_4bus/4node_VLN_Node.Txt

LINE-GROUND and LINE-LINE VOLTAGES BY BUS & NODE

Bus  Node    VLN (kV)   Angle      pu     Base kV    Node-Node   VLL (kV)  Angle      pu

1 .. 1       2.4258 /_    0.0      1.01     4.160        1-2     4.2016 /_   30.0      1.01
   - 2       2.4258 /_ -120.0      1.01     4.160        2-3     4.2015 /_  -90.0      1.01
   - 3       2.4258 /_  120.0      1.01     4.160        3-1     4.2016 /_  150.0      1.01
4 .. 1      0.27989 /_    0.0      1.01     0.480        1-2    0.48479 /_   30.0      1.01
   - 2      0.27989 /_ -120.0      1.01     0.480        2-3    0.48479 /_  -90.0      1.01
   - 3      0.27989 /_  120.0      1.01     0.480        3-1    0.48479 /_  150.0      1.01
2S . 1       2.4258 /_    0.0      1.01     4.160        1-2     4.2015 /_   30.0      1.01
   - 2       2.4255 /_ -120.0    1.0099     4.160
3S . 2        2.425 /_ -120.0    1.0097     4.160
